# CIF file created by FINDSYM, version 5.0.0

 
data_findsym-output
_audit_creation_method FINDSYM
 
_cell_length_a    14.1838000000
_cell_length_b    3.6274100000
_cell_length_c    8.8577000000
_cell_angle_alpha 90.0000000000
_cell_angle_beta  100.0271000000
_cell_angle_gamma 90.0000000000
 
_symmetry_space_group_name_H-M "C 1 2/m 1"
_symmetry_Int_Tables_number 12
_space_group.reference_setting '012:-C 2y'
_space_group.transform_Pp_abc a,b,c;0,0,0
 
loop_
_space_group_symop_id
_space_group_symop_operation_xyz
1 x,y,z
2 -x,y,-z
3 -x,-y,-z
4 x,-y,z
5 x+1/2,y+1/2,z
6 -x+1/2,y+1/2,-z
7 -x+1/2,-y+1/2,-z
8 x+1/2,-y+1/2,z
 
loop_
_atom_site_label
_atom_site_type_symbol
_atom_site_symmetry_multiplicity
_atom_site_Wyckoff_label
_atom_site_fract_x
_atom_site_fract_y
_atom_site_fract_z
_atom_site_occupancy
Sm1 Sm   4 i 0.36430 0.00000 0.51030  1.00000
Sm2 Sm   4 i 0.32000 0.00000 0.86380  1.00000
Sm3 Sm   4 i 0.03280 0.00000 0.81350  1.00000
O1  O    4 i 0.86880 0.00000 0.71330  1.00000
O2  O    4 i 0.17460 0.00000 -0.02960 1.00000
O3  O    4 i 0.20140 0.00000 0.63060  1.00000
O4  O    4 i 0.52780 0.00000 0.65410  1.00000
O5  O    2 b 0.00000 0.50000 0.00000  1.00000
